352
17.8276004792  0.0000000000   0.0000000000   0.0000000000   19.3869991302  0.0000000000   -8.2834166060  0.0000000000   17.0628151132  
Zn     -0.2604040000   0.5463030000   3.7427650000
Zn      5.0324950000   9.1471970000   4.7886410000
Zn      7.1033480000   5.3930530000   0.5229370000
Zn     -2.3312580000   4.3004470000   8.0084700000
nc1    -1.2338580000   8.5905940000   3.1503960000
nc1     6.0059500000   1.1029050000   5.3810100000
nc1     8.0768050000   3.7438450000   1.1153070000
nc1    -3.3047120000   5.9496550000   7.4161000000
nc1     6.4066850000   8.2335620000   3.5043680000
nc1    -1.6345950000   1.4599360000   5.0270400000
nc1     0.4362600000   3.3868140000   0.7613360000
nc1     4.3358320000   6.3066860000   7.7700710000
nc4     7.0940970000   6.8548610000   1.9124010000
nc4    -2.3220040000   2.8386380000   6.6190070000
nc4    -0.2511500000   2.0081110000   2.3533030000
nc4     5.0232430000   7.6853870000   6.1781030000
o       1.0993530000   0.7420570000   5.2271930000
o       3.6727390000   8.9514430000   3.3042140000
o       1.6018850000   5.5888070000   7.5699170000
o       3.1702070000   4.1046930000   0.9614900000
o       3.2385230000   0.3157430000   5.7740050000
o       1.5335690000   9.3777560000   2.7574020000
o      -0.5372850000   5.1624940000   7.0231060000
o       5.3093770000   4.5310070000   1.5083020000
cc1    -0.8486510000   7.7505250000   2.1903220000
cc1     5.6207430000   1.9429740000   6.3410840000
cc1     7.6915970000   2.9037760000   2.0753810000
cc1    -2.9195060000   6.7897240000   6.4560260000
cc1     6.0844040000   7.1887790000   2.7486830000
cc1    -1.3123120000   2.5047210000   5.7827240000
cc1     0.7585420000   2.3420290000   1.5170210000
cc1     4.0135500000   7.3514710000   7.0143870000
c       2.2663150000   0.3039750000   4.9750300000
c       2.5057770000   9.3895240000   3.5563770000
c       0.4349230000   5.1507240000   7.8220810000
c       4.3371690000   4.5427750000   0.7093270000
ha3     0.1215410000   7.8036450000   1.7108350000
ha3     4.6505510000   1.8898540000   6.8205730000
ha3     6.7214060000   2.9568950000   2.5548690000
ha3    -1.9493130000   6.7366040000   5.9765380000
ha3     5.1320180000   6.6761070000   2.7942730000
ha3    -0.3599260000   3.0173930000   5.7371340000
ha3     1.7109280000   1.8293570000   1.4714310000
ha3     3.0611640000   7.8641420000   7.0599760000
Zn     -4.4021123030   0.5463030000  12.2741725566
Zn      0.8907866970   9.1471970000  13.3200485566
Zn      2.9616396970   5.3930530000   9.0543445566
Zn     -6.4729663030   4.3004470000  16.5398775566
nc1    -5.3755663030   8.5905940000  11.6818035566
nc1     1.8642416970   1.1029050000  13.9124175566
nc1     3.9350966970   3.7438450000   9.6467145566
nc1    -7.4464203030   5.9496550000  15.9475075566
nc1     2.2649766970   8.2335620000  12.0357755566
nc1    -5.7763033030   1.4599360000  13.5584475566
nc1    -3.7054483030   3.3868140000   9.2927435566
nc1     0.1941236970   6.3066860000  16.3014785566
nc4     2.9523886970   6.8548610000  10.4438085566
nc4    -6.4637123030   2.8386380000  15.1504145566
nc4    -4.3928583030   2.0081110000  10.8847105566
nc4     0.8815346970   7.6853870000  14.7095105566
o      -3.0423553030   0.7420570000  13.7586005566
o      -0.4689693030   8.9514430000  11.8356215566
o      -2.5398233030   5.5888070000  16.1013245566
o      -0.9715013030   4.1046930000   9.4928975566
o      -0.9031853030   0.3157430000  14.3054125566
o      -2.6081393030   9.3777560000  11.2888095566
o      -4.6789933030   5.1624940000  15.5545135566
o       1.1676686970   4.5310070000  10.0397095566
cc1    -4.9903593030   7.7505250000  10.7217295566
cc1     1.4790346970   1.9429740000  14.8724915566
cc1     3.5498886970   2.9037760000  10.6067885566
cc1    -7.0612143030   6.7897240000  14.9874335566
cc1     1.9426956970   7.1887790000  11.2800905566
cc1    -5.4540203030   2.5047210000  14.3141315566
cc1    -3.3831663030   2.3420290000  10.0484285566
cc1    -0.1281583030   7.3514710000  15.5457945566
c      -1.8753933030   0.3039750000  13.5064375566
c      -1.6359313030   9.3895240000  12.0877845566
c      -3.7067853030   5.1507240000  16.3534885566
c       0.1954606970   4.5427750000   9.2407345566
ha3    -4.0201673030   7.8036450000  10.2422425566
ha3     0.5088426970   1.8898540000  15.3519805566
ha3     2.5796976970   2.9568950000  11.0862765566
ha3    -6.0910213030   6.7366040000  14.5079455566
ha3     0.9903096970   6.6761070000  11.3256805566
ha3    -4.5016343030   3.0173930000  14.2685415566
ha3    -2.4307803030   1.8293570000  10.0028385566
ha3    -1.0805443030   7.8641420000  15.5913835566
Zn     -0.2604040000  10.2398025651   3.7427650000
Zn      5.0324950000  18.8406965651   4.7886410000
Zn      7.1033480000  15.0865525651   0.5229370000
Zn     -2.3312580000  13.9939465651   8.0084700000
nc1    -1.2338580000  18.2840935651   3.1503960000
nc1     6.0059500000  10.7964045651   5.3810100000
nc1     8.0768050000  13.4373445651   1.1153070000
nc1    -3.3047120000  15.6431545651   7.4161000000
nc1     6.4066850000  17.9270615651   3.5043680000
nc1    -1.6345950000  11.1534355651   5.0270400000
nc1     0.4362600000  13.0803135651   0.7613360000
nc1     4.3358320000  16.0001855651   7.7700710000
nc4     7.0940970000  16.5483605651   1.9124010000
nc4    -2.3220040000  12.5321375651   6.6190070000
nc4    -0.2511500000  11.7016105651   2.3533030000
nc4     5.0232430000  17.3788865651   6.1781030000
o       1.0993530000  10.4355565651   5.2271930000
o       3.6727390000  18.6449425651   3.3042140000
o       1.6018850000  15.2823065651   7.5699170000
o       3.1702070000  13.7981925651   0.9614900000
o       3.2385230000  10.0092425651   5.7740050000
o       1.5335690000  19.0712555651   2.7574020000
o      -0.5372850000  14.8559935651   7.0231060000
o       5.3093770000  14.2245065651   1.5083020000
cc1    -0.8486510000  17.4440245651   2.1903220000
cc1     5.6207430000  11.6364735651   6.3410840000
cc1     7.6915970000  12.5972755651   2.0753810000
cc1    -2.9195060000  16.4832235651   6.4560260000
cc1     6.0844040000  16.8822785651   2.7486830000
cc1    -1.3123120000  12.1982205651   5.7827240000
cc1     0.7585420000  12.0355285651   1.5170210000
cc1     4.0135500000  17.0449705651   7.0143870000
c       2.2663150000   9.9974745651   4.9750300000
c       2.5057770000  19.0830235651   3.5563770000
c       0.4349230000  14.8442235651   7.8220810000
c       4.3371690000  14.2362745651   0.7093270000
ha3     0.1215410000  17.4971445651   1.7108350000
ha3     4.6505510000  11.5833535651   6.8205730000
ha3     6.7214060000  12.6503945651   2.5548690000
ha3    -1.9493130000  16.4301035651   5.9765380000
ha3     5.1320180000  16.3696065651   2.7942730000
ha3    -0.3599260000  12.7108925651   5.7371340000
ha3     1.7109280000  11.5228565651   1.4714310000
ha3     3.0611640000  17.5576415651   7.0599760000
Zn     -4.4021123030  10.2398025651  12.2741725566
Zn      0.8907866970  18.8406965651  13.3200485566
Zn      2.9616396970  15.0865525651   9.0543445566
Zn     -6.4729663030  13.9939465651  16.5398775566
nc1    -5.3755663030  18.2840935651  11.6818035566
nc1     1.8642416970  10.7964045651  13.9124175566
nc1     3.9350966970  13.4373445651   9.6467145566
nc1    -7.4464203030  15.6431545651  15.9475075566
nc1     2.2649766970  17.9270615651  12.0357755566
nc1    -5.7763033030  11.1534355651  13.5584475566
nc1    -3.7054483030  13.0803135651   9.2927435566
nc1     0.1941236970  16.0001855651  16.3014785566
nc4     2.9523886970  16.5483605651  10.4438085566
nc4    -6.4637123030  12.5321375651  15.1504145566
nc4    -4.3928583030  11.7016105651  10.8847105566
nc4     0.8815346970  17.3788865651  14.7095105566
o      -3.0423553030  10.4355565651  13.7586005566
o      -0.4689693030  18.6449425651  11.8356215566
o      -2.5398233030  15.2823065651  16.1013245566
o      -0.9715013030  13.7981925651   9.4928975566
o      -0.9031853030  10.0092425651  14.3054125566
o      -2.6081393030  19.0712555651  11.2888095566
o      -4.6789933030  14.8559935651  15.5545135566
o       1.1676686970  14.2245065651  10.0397095566
cc1    -4.9903593030  17.4440245651  10.7217295566
cc1     1.4790346970  11.6364735651  14.8724915566
cc1     3.5498886970  12.5972755651  10.6067885566
cc1    -7.0612143030  16.4832235651  14.9874335566
cc1     1.9426956970  16.8822785651  11.2800905566
cc1    -5.4540203030  12.1982205651  14.3141315566
cc1    -3.3831663030  12.0355285651  10.0484285566
cc1    -0.1281583030  17.0449705651  15.5457945566
c      -1.8753933030   9.9974745651  13.5064375566
c      -1.6359313030  19.0830235651  12.0877845566
c      -3.7067853030  14.8442235651  16.3534885566
c       0.1954606970  14.2362745651   9.2407345566
ha3    -4.0201673030  17.4971445651  10.2422425566
ha3     0.5088426970  11.5833535651  15.3519805566
ha3     2.5796976970  12.6503945651  11.0862765566
ha3    -6.0910213030  16.4301035651  14.5079455566
ha3     0.9903096970  16.3696065651  11.3256805566
ha3    -4.5016343030  12.7108925651  14.2685415566
ha3    -2.4307803030  11.5228565651  10.0028385566
ha3    -1.0805443030  17.5576415651  15.5913835566
Zn      8.6533962396   0.5463030000   3.7427650000
Zn     13.9462952396   9.1471970000   4.7886410000
Zn     16.0171482396   5.3930530000   0.5229370000
Zn      6.5825422396   4.3004470000   8.0084700000
nc1     7.6799422396   8.5905940000   3.1503960000
nc1    14.9197502396   1.1029050000   5.3810100000
nc1    16.9906052396   3.7438450000   1.1153070000
nc1     5.6090882396   5.9496550000   7.4161000000
nc1    15.3204852396   8.2335620000   3.5043680000
nc1     7.2792052396   1.4599360000   5.0270400000
nc1     9.3500602396   3.3868140000   0.7613360000
nc1    13.2496322396   6.3066860000   7.7700710000
nc4    16.0078972396   6.8548610000   1.9124010000
nc4     6.5917962396   2.8386380000   6.6190070000
nc4     8.6626502396   2.0081110000   2.3533030000
nc4    13.9370432396   7.6853870000   6.1781030000
o      10.0131532396   0.7420570000   5.2271930000
o      12.5865392396   8.9514430000   3.3042140000
o      10.5156852396   5.5888070000   7.5699170000
o      12.0840072396   4.1046930000   0.9614900000
o      12.1523232396   0.3157430000   5.7740050000
o      10.4473692396   9.3777560000   2.7574020000
o       8.3765152396   5.1624940000   7.0231060000
o      14.2231772396   4.5310070000   1.5083020000
cc1     8.0651492396   7.7505250000   2.1903220000
cc1    14.5345432396   1.9429740000   6.3410840000
cc1    16.6053972396   2.9037760000   2.0753810000
cc1     5.9942942396   6.7897240000   6.4560260000
cc1    14.9982042396   7.1887790000   2.7486830000
cc1     7.6014882396   2.5047210000   5.7827240000
cc1     9.6723422396   2.3420290000   1.5170210000
cc1    12.9273502396   7.3514710000   7.0143870000
c      11.1801152396   0.3039750000   4.9750300000
c      11.4195772396   9.3895240000   3.5563770000
c       9.3487232396   5.1507240000   7.8220810000
c      13.2509692396   4.5427750000   0.7093270000
ha3     9.0353412396   7.8036450000   1.7108350000
ha3    13.5643512396   1.8898540000   6.8205730000
ha3    15.6352062396   2.9568950000   2.5548690000
ha3     6.9644872396   6.7366040000   5.9765380000
ha3    14.0458182396   6.6761070000   2.7942730000
ha3     8.5538742396   3.0173930000   5.7371340000
ha3    10.6247282396   1.8293570000   1.4714310000
ha3    11.9749642396   7.8641420000   7.0599760000
Zn      4.5116879366   0.5463030000  12.2741725566
Zn      9.8045869366   9.1471970000  13.3200485566
Zn     11.8754399366   5.3930530000   9.0543445566
Zn      2.4408339366   4.3004470000  16.5398775566
nc1     3.5382339366   8.5905940000  11.6818035566
nc1    10.7780419366   1.1029050000  13.9124175566
nc1    12.8488969366   3.7438450000   9.6467145566
nc1     1.4673799366   5.9496550000  15.9475075566
nc1    11.1787769366   8.2335620000  12.0357755566
nc1     3.1374969366   1.4599360000  13.5584475566
nc1     5.2083519366   3.3868140000   9.2927435566
nc1     9.1079239366   6.3066860000  16.3014785566
nc4    11.8661889366   6.8548610000  10.4438085566
nc4     2.4500879366   2.8386380000  15.1504145566
nc4     4.5209419366   2.0081110000  10.8847105566
nc4     9.7953349366   7.6853870000  14.7095105566
o       5.8714449366   0.7420570000  13.7586005566
o       8.4448309366   8.9514430000  11.8356215566
o       6.3739769366   5.5888070000  16.1013245566
o       7.9422989366   4.1046930000   9.4928975566
o       8.0106149366   0.3157430000  14.3054125566
o       6.3056609366   9.3777560000  11.2888095566
o       4.2348069366   5.1624940000  15.5545135566
o      10.0814689366   4.5310070000  10.0397095566
cc1     3.9234409366   7.7505250000  10.7217295566
cc1    10.3928349366   1.9429740000  14.8724915566
cc1    12.4636889366   2.9037760000  10.6067885566
cc1     1.8525859366   6.7897240000  14.9874335566
cc1    10.8564959366   7.1887790000  11.2800905566
cc1     3.4597799366   2.5047210000  14.3141315566
cc1     5.5306339366   2.3420290000  10.0484285566
cc1     8.7856419366   7.3514710000  15.5457945566
c       7.0384069366   0.3039750000  13.5064375566
c       7.2778689366   9.3895240000  12.0877845566
c       5.2070149366   5.1507240000  16.3534885566
c       9.1092609366   4.5427750000   9.2407345566
ha3     4.8936329366   7.8036450000  10.2422425566
ha3     9.4226429366   1.8898540000  15.3519805566
ha3    11.4934979366   2.9568950000  11.0862765566
ha3     2.8227789366   6.7366040000  14.5079455566
ha3     9.9041099366   6.6761070000  11.3256805566
ha3     4.4121659366   3.0173930000  14.2685415566
ha3     6.4830199366   1.8293570000  10.0028385566
ha3     7.8332559366   7.8641420000  15.5913835566
Zn      8.6533962396  10.2398025651   3.7427650000
Zn     13.9462952396  18.8406965651   4.7886410000
Zn     16.0171482396  15.0865525651   0.5229370000
Zn      6.5825422396  13.9939465651   8.0084700000
nc1     7.6799422396  18.2840935651   3.1503960000
nc1    14.9197502396  10.7964045651   5.3810100000
nc1    16.9906052396  13.4373445651   1.1153070000
nc1     5.6090882396  15.6431545651   7.4161000000
nc1    15.3204852396  17.9270615651   3.5043680000
nc1     7.2792052396  11.1534355651   5.0270400000
nc1     9.3500602396  13.0803135651   0.7613360000
nc1    13.2496322396  16.0001855651   7.7700710000
nc4    16.0078972396  16.5483605651   1.9124010000
nc4     6.5917962396  12.5321375651   6.6190070000
nc4     8.6626502396  11.7016105651   2.3533030000
nc4    13.9370432396  17.3788865651   6.1781030000
o      10.0131532396  10.4355565651   5.2271930000
o      12.5865392396  18.6449425651   3.3042140000
o      10.5156852396  15.2823065651   7.5699170000
o      12.0840072396  13.7981925651   0.9614900000
o      12.1523232396  10.0092425651   5.7740050000
o      10.4473692396  19.0712555651   2.7574020000
o       8.3765152396  14.8559935651   7.0231060000
o      14.2231772396  14.2245065651   1.5083020000
cc1     8.0651492396  17.4440245651   2.1903220000
cc1    14.5345432396  11.6364735651   6.3410840000
cc1    16.6053972396  12.5972755651   2.0753810000
cc1     5.9942942396  16.4832235651   6.4560260000
cc1    14.9982042396  16.8822785651   2.7486830000
cc1     7.6014882396  12.1982205651   5.7827240000
cc1     9.6723422396  12.0355285651   1.5170210000
cc1    12.9273502396  17.0449705651   7.0143870000
c      11.1801152396   9.9974745651   4.9750300000
c      11.4195772396  19.0830235651   3.5563770000
c       9.3487232396  14.8442235651   7.8220810000
c      13.2509692396  14.2362745651   0.7093270000
ha3     9.0353412396  17.4971445651   1.7108350000
ha3    13.5643512396  11.5833535651   6.8205730000
ha3    15.6352062396  12.6503945651   2.5548690000
ha3     6.9644872396  16.4301035651   5.9765380000
ha3    14.0458182396  16.3696065651   2.7942730000
ha3     8.5538742396  12.7108925651   5.7371340000
ha3    10.6247282396  11.5228565651   1.4714310000
ha3    11.9749642396  17.5576415651   7.0599760000
Zn      4.5116879366  10.2398025651  12.2741725566
Zn      9.8045869366  18.8406965651  13.3200485566
Zn     11.8754399366  15.0865525651   9.0543445566
Zn      2.4408339366  13.9939465651  16.5398775566
nc1     3.5382339366  18.2840935651  11.6818035566
nc1    10.7780419366  10.7964045651  13.9124175566
nc1    12.8488969366  13.4373445651   9.6467145566
nc1     1.4673799366  15.6431545651  15.9475075566
nc1    11.1787769366  17.9270615651  12.0357755566
nc1     3.1374969366  11.1534355651  13.5584475566
nc1     5.2083519366  13.0803135651   9.2927435566
nc1     9.1079239366  16.0001855651  16.3014785566
nc4    11.8661889366  16.5483605651  10.4438085566
nc4     2.4500879366  12.5321375651  15.1504145566
nc4     4.5209419366  11.7016105651  10.8847105566
nc4     9.7953349366  17.3788865651  14.7095105566
o       5.8714449366  10.4355565651  13.7586005566
o       8.4448309366  18.6449425651  11.8356215566
o       6.3739769366  15.2823065651  16.1013245566
o       7.9422989366  13.7981925651   9.4928975566
o       8.0106149366  10.0092425651  14.3054125566
o       6.3056609366  19.0712555651  11.2888095566
o       4.2348069366  14.8559935651  15.5545135566
o      10.0814689366  14.2245065651  10.0397095566
cc1     3.9234409366  17.4440245651  10.7217295566
cc1    10.3928349366  11.6364735651  14.8724915566
cc1    12.4636889366  12.5972755651  10.6067885566
cc1     1.8525859366  16.4832235651  14.9874335566
cc1    10.8564959366  16.8822785651  11.2800905566
cc1     3.4597799366  12.1982205651  14.3141315566
cc1     5.5306339366  12.0355285651  10.0484285566
cc1     8.7856419366  17.0449705651  15.5457945566
c       7.0384069366   9.9974745651  13.5064375566
c       7.2778689366  19.0830235651  12.0877845566
c       5.2070149366  14.8442235651  16.3534885566
c       9.1092609366  14.2362745651   9.2407345566
ha3     4.8936329366  17.4971445651  10.2422425566
ha3     9.4226429366  11.5833535651  15.3519805566
ha3    11.4934979366  12.6503945651  11.0862765566
ha3     2.8227789366  16.4301035651  14.5079455566
ha3     9.9041099366  16.3696065651  11.3256805566
ha3     4.4121659366  12.7108925651  14.2685415566
ha3     6.4830199366  11.5228565651  10.0028385566
ha3     7.8332559366  17.5576415651  15.5913835566
